/*--------------------------------*- C++ -*----------------------------------*\
| =========                 |                                                 |
| \\      /  F ield         | OpenFOAM: The Open Source CFD Toolbox           |
|  \\    /   O peration     | Version:  plus                                  |
|   \\  /    A nd           | Web:      www.OpenFOAM.com                      |
|    \\/     M anipulation  |                                                 |
\*---------------------------------------------------------------------------*/
FoamFile
{
    version     2.0;
    format      ascii;
    class       dictionary;
    object      fvSolution;
}
// * * * * * * * * * * * * * * * * * * * * * * * * * * * * * * * * * * * * * //

solvers
{
    cellDisplacement
    {
        solver          PCG;
        preconditioner  DIC;

        tolerance       1e-06;
        relTol          0;
        maxIter         100;
    }

    p
    {
        solver          PBiCGStab;
        preconditioner  DILU;
        tolerance       1e-6;
        relTol          0;
    }

    pFinal
    {
        $p;
    }

    pcorr
    {
        $p;
        solver          PCG;
        preconditioner  DIC;
    }
 yPsi
    {
        solver          PBiCGStab;
        preconditioner  DILU;
        tolerance       1e-5;
        relTol          0.0;
    }

    pcorrFinal
    {
        $pcorr;
        relTol          0;
    }

    "(U|k|epsilon|omega)"
    {
        solver          smoothSolver;
        smoother        symGaussSeidel;
        tolerance       1e-6;
        relTol          0;
    }

    "(U|k|epsilon|omega)Final"
    {
        $U;
        tolerance       1e-6;
        relTol          0;
    }
}

PIMPLE
{
    momentumPredictor   no;
    correctPhi          no;
    nOuterCorrectors    1;
    nCorrectors         2;
    nNonOrthogonalCorrectors 1;

    ddtCorr             false;

    pRefPoint           (0 0 0);
    pRefValue           0.0;
 
        p               1e-6;
        U               1e-6;
        "(k|epsilon|omega|f|v2)" 1e-6;
    
}

relaxationFactors
{
   fields
   {
   }
   equations
   {
omega           0.7;
   }
}

// ************************************************************************* //
