/*--------------------------------*- C++ -*----------------------------------*\
| =========                 |                                                 |
| \\      /  F ield         | OpenFOAM: The Open Source CFD Toolbox           |
|  \\    /   O peration     | Version:  v1806                                 |
|   \\  /    A nd           | Web:      www.OpenFOAM.com                      |
|    \\/     M anipulation  |                                                 |
\*---------------------------------------------------------------------------*/
FoamFile
{
    version     2.0;
    format      ascii;
    class       dictionary;
    location    "0/uniform";
    object      time;
}
// * * * * * * * * * * * * * * * * * * * * * * * * * * * * * * * * * * * * * //

value           0.045000000000000262;

name            "0.045";

index           450;

deltaT          0.0001;

deltaT0         0.0001;


// ************************************************************************* //
